198
# Frame Number: 1
Ti    5.89988000   4.74211000   8.75825000
Ti   11.16086000  10.43619000   4.48823000
Ti   11.93714000   2.37528000   8.62729000
Ti    8.54224000   2.81839000   8.24878000
Ti   12.65050000   6.19781000  12.63233000
Ti    5.59615000  12.01994000   4.29079000
Ti    5.23481000   6.77460000   5.70741000
Ti    2.96925000   4.20206000   4.77154000
Ti    6.77972000  11.13504000   1.19600000
Ti   11.40652000  10.18408000  12.09095000
Ti    6.11289000   5.71085000   0.21995000
Ti    1.68371000  11.27784000   3.81628000
Ti    0.18674000   2.88546000   4.22079000
Ti    7.73321000   9.36722000   5.00836000
Ti    8.20302000   6.23581000   3.18552000
Ti   10.57395000   4.20549000   6.46648000
Ti    3.73403000   6.69339000   2.77215000
Ti    1.64220000   9.01979000   1.06616000
Ti   10.78562000   0.46883000   6.36909000
Ti    1.42364000   4.14212000   1.70697000
Ti    8.13865000   1.73132000   4.85929000
Ti    2.33021000   8.91757000   6.83498000
Ti   11.69349000   7.14639000   2.43335000
Ti    3.65864000   9.73690000   9.58467000
Ti    4.52642000   0.06885000  11.70439000
Ti   11.75609000   0.34260000  11.28965000
Ti    5.99203000   7.75488000  10.30325000
Ti    3.23969000   6.27012000   8.65169000
Ti    8.57112000   6.06379000  10.25923000
Ti    2.12324000   1.31673000   9.48390000
Ti    2.77416000   3.49473000   7.53845000
Ti   11.34125000   2.64934000   1.01984000
Ti    2.95975000   1.34534000   4.11052000
Ti    7.90126000   2.79998000   1.43298000
Ti    9.83963000  11.15804000   9.04797000
Ti    1.37062000   4.71160000  10.50693000
Ti    4.62613000   9.20635000  12.74126000
Ti    4.45855000   2.13917000   1.66232000
Ti    3.96081000   9.36571000   3.92412000
Ti   10.62766000   8.11799000  10.06297000
Ti    0.33395000   5.70844000   5.72491000
Ti    0.91409000   0.91794000   6.49029000
Ti    7.48381000   3.23672000  11.23540000
Ti   12.13874000   5.82325000   8.67725000
Ti   12.14139000  12.08034000   1.45593000
Ti   10.79695000   3.68860000  11.01293000
Ti    3.90215000  11.50718000   1.66228000
Ti    1.67779000   1.22110000   1.12353000
Ti   10.09461000   4.16196000   3.44448000
Ti    7.53313000  12.29367000   7.13531000
Ti    6.41368000   7.98055000   2.04032000
Ti   11.84414000   9.30228000   7.50384000
Ti    6.41732000  10.90759000  10.41758000
Ti    7.72624000   4.71747000   5.77999000
Ti    8.08359000   8.54504000   7.70722000
Ti    0.80703000  11.39527000   8.98272000
Ti    9.28371000   9.76262000   2.41241000
Ti    5.83706000   4.27111000   3.47808000
Ti    5.50322000   2.09235000   6.44531000
Ti    8.55927000   9.33477000  12.14908000
Ti    3.01510000   6.31268000  12.61934000
Ti    5.66543000   1.61762000   9.32648000
Ti    3.83008000  12.47695000   7.07875000
Ti   10.51650000   7.35123000   5.20671000
Ti    8.30141000   0.26308000  11.06019000
Ti    9.62893000   5.78510000   0.41691000
Ti    4.02075000   3.12796000  11.61915000
Ti    9.58461000   0.08919000   2.86872000
Ti    0.81066000   8.42355000   4.38627000
Ti    1.11432000   7.99795000  10.33840000
Ti    1.56281000  11.40346000  11.89450000
Ti    5.39041000   9.65774000   6.95111000
O    10.25214000   6.18703000   9.41448000
O     9.15957000  10.44257000   4.46901000
O    12.16421000   8.72368000  11.17806000
O     7.85275000   6.61060000   1.27086000
O     1.34784000   4.58721000   3.79222000
O    10.07059000   5.98070000   2.46715000
O     2.18281000   9.87964000   5.13487000
O     4.14232000   3.54350000   6.16864000
O     7.70822000   4.48970000   9.45731000
O     4.21245000   8.40331000  10.89747000
O    10.12968000   9.54194000   0.58943000
O     1.89601000   2.43863000   5.34595000
O    11.69952000  11.67156000   5.70821000
O    12.17098000   0.53578000   7.71905000
O     5.78476000   0.36565000   7.71632000
O     3.73488000   1.76136000   7.92494000
O     7.92753000  11.53091000   9.25220000
O     0.48048000   8.20747000   2.28534000
O     2.46969000  10.05249000   2.49773000
O     1.46373000   4.94032000  12.46487000
O     4.22800000   5.52988000   4.36169000
O     6.20869000  10.19586000   4.23301000
O     4.41829000  11.29021000  10.30670000
O     0.26801000  10.34401000   0.51627000
O     8.32810000  11.60648000   2.12761000
O    10.63568000   8.52892000   3.32629000
O     5.22692000  11.31208000  12.73289000
O     2.64671000   6.26148000  10.59269000
O     0.99426000  12.46075000   2.48377000
O     9.91337000  10.00718000  10.76121000
O     1.32908000   7.63036000  12.46305000
O    10.84941000  11.98761000  12.66230000
O     7.76124000  11.36728000  12.19719000
O     5.10074000   1.67036000  12.62698000
O     0.96702000   9.99897000   7.51847000
O    12.27955000   6.75436000   4.24231000
O     3.85021000   6.37692000   6.91356000
O     5.65867000   3.43840000  10.44480000
O     3.91320000   3.04393000   3.51553000
O     9.13029000   4.59633000  11.51904000
O     1.43330000   2.28281000   2.86654000
O     7.97329000   1.58308000   6.84822000
O     7.60907000   9.35900000   1.20386000
O     9.27029000   3.29991000   5.08064000
O     5.60761000   7.56187000   0.21010000
O     6.15064000   2.75427000   2.24049000
O     0.13197000  10.25816000   3.72545000
O     0.42253000   0.29340000  12.65313000
O     5.77877000  12.39298000   2.35268000
O     5.50091000   5.80857000   2.06136000
O     0.14361000   1.26830000  10.06575000
O     5.17513000   7.78494000   3.63632000
O     8.34665000   1.67747000   2.92125000
O     6.54536000   8.08263000   6.27533000
O     5.01308000  11.36162000   6.05251000
O     1.23182000   2.40645000   7.99552000
O     6.31184000   5.48366000   6.99662000
O    10.36242000   2.30112000   7.16887000
O     3.80864000  11.43660000   3.73092000
O     8.93195000   4.53049000   7.36993000
O    11.75815000   4.24960000   4.97405000
O     3.33704000   7.86583000   1.19559000
O    10.89800000   2.05460000  11.94642000
O    12.18328000   1.51684000   5.19293000
O    11.40134000   4.69438000  12.54166000
O     2.88626000   5.35713000   1.74764000
O    11.19156000   7.18517000   0.55325000
O     5.18294000   9.78155000   1.89784000
O    10.12569000  12.75770000  10.20098000
O     1.96501000  12.69124000   5.10079000
O     7.11503000   4.13605000   0.25292000
O     6.36274000   3.03432000   7.98310000
O     7.98309000   8.18377000   3.44796000
O     3.93702000   1.35677000  10.39720000
O     2.90058000  10.18159000   0.07153000
O     2.89560000   2.89647000   0.70499000
O    11.66216000  10.88997000   8.62189000
O     6.61228000   3.07220000   5.04153000
O     6.69376000   5.89115000   4.48521000
O     2.56121000   7.63403000   3.79839000
O    12.04979000   4.13244000   7.62316000
O    11.01776000   1.00692000   1.85714000
O     7.65383000   7.42189000   9.21293000
O    10.81316000  11.23302000   2.74324000
O     9.25561000   7.37582000  11.54328000
O     2.07813000  12.43627000  10.28689000
O     9.67673000   3.64641000   1.32922000
O     1.90203000   4.71588000   6.28088000
O     7.79171000   1.81242000   9.73040000
O     1.22568000   7.53135000   6.23724000
O     9.03453000   8.24156000   6.03006000
O     9.55024000  12.13175000   7.36196000
O     6.82422000   6.21663000  11.22634000
O     4.15417000   8.54029000   5.86363000
O     0.39000000   2.81828000   0.64076000
O     9.86882000   9.18106000   8.41063000
O     3.94724000   4.36305000   8.73189000
O    11.76199000   3.32204000   2.77065000
O     0.12760000   5.63568000   1.71801000
O     6.74266000   9.18666000  11.35819000
O    12.41009000   3.91472000  10.04969000
O    12.35127000   7.84684000   8.80980000
O     5.09257000   6.46900000   9.24128000
O     7.94423000   4.36004000   2.93699000
O     9.71002000   0.59395000   4.79448000
O    11.31294000   6.20116000   6.69642000
O     7.11496000   0.07540000   5.07490000
O     2.25826000   3.07318000  10.51852000
O     2.96146000  12.66900000   0.05461000
O     4.49510000   4.99553000  12.26161000
O    12.52865000  11.37781000  10.84813000
O     3.33437000   0.68131000   2.36845000
O     9.32398000   5.71880000   4.83594000
O    11.75421000   8.94253000   5.60691000
O     1.53172000   5.24050000   8.61597000
O     5.74302000   9.33554000   8.97712000
O     2.63497000   8.11211000   8.68628000
O     1.85528000   9.94230000  10.26462000
O    10.07359000   2.95704000   9.46669000
O     7.43835000  10.28475000   6.80788000
O     1.99703000  12.67170000   7.90268000
O     4.49436000   0.87027000   5.14166000
O     3.58019000  10.38993000   7.77661000
O     6.25962000   0.18913000  10.76124000
O    12.75172000   6.23535000  10.68107000
O     8.09773000   1.77870000  12.55885000
