212
# Frame Number: 1
Ti    0.01496000   5.54148000   7.16154000
Ti    4.72308000   3.22295000   3.76154000
Ti   10.64450000  10.01073000   8.66370000
Ti    2.43274000   8.18432000   7.10878000
Ti    7.31226000   1.63049000   6.98698000
Ti   12.11680000  11.20072000   5.99702000
Ti    8.01383000   3.83291000   9.18135000
Ti    6.27554000   4.55659000   6.52502000
Ti   11.88434000   2.70544000   5.06575000
Ti   11.30867000  10.17109000  11.37185000
Ti    5.38726000   9.19047000   8.93998000
Ti    2.09432000   2.89688000   1.74760000
Ti    5.79446000   8.66714000   2.08959000
Ti    9.41873000   5.74598000  12.97365000
Ti    7.72287000   0.97351000   3.36423000
Ti    7.77573000   0.69822000  10.44224000
Ti    1.31386000   0.92632000   6.58852000
Ti   12.39255000  12.81062000  10.58881000
Ti    0.78910000  12.97457000   3.43678000
Ti    5.53430000  12.09684000   1.29975000
Ti   10.40113000   0.51082000   8.33647000
Ti   12.82853000   5.77107000   3.68853000
Ti    0.20645000   7.75631000   9.15667000
Ti    9.02384000   9.70181000   5.88546000
Ti    9.89903000   4.18966000   6.79718000
Ti    6.23676000   5.86992000   3.65735000
Ti    5.64473000   2.36971000   1.18158000
Ti    9.29968000   2.64591000   1.14262000
Ti    8.28211000   8.32038000  10.73533000
Ti    4.46845000  12.51006000   8.07055000
Ti    3.80161000   2.51439000   6.62125000
Ti    9.39034000  12.73074000   5.47806000
Ti    0.17060000   4.65804000  10.71481000
Ti   12.84673000   9.41671000   3.62882000
Ti    9.02299000   9.26238000   0.55730000
Ti    2.72754000   0.01146000   0.86909000
Ti    8.53770000   8.01492000   3.36773000
Ti   10.58697000   6.06860000   9.59808000
Ti    2.47371000   2.01875000   9.59297000
Ti    7.46987000  11.71000000   7.81610000
Ti    2.07621000   4.33304000   4.97921000
Ti    5.75499000   6.12240000   9.39272000
Ti   11.19861000   0.91325000   2.79076000
Ti   11.90550000   4.24758000   1.12989000
Ti    1.16980000  10.79679000   8.08597000
Ti    1.44286000   8.97892000  12.37071000
Ti    4.20885000   5.62731000   1.43091000
Ti    2.87476000   7.42694000   3.58551000
Ti    2.70022000  10.20838000   2.33118000
Ti    2.94307000   7.04133000  10.73124000
Ti    3.14855000   5.29999000   8.14292000
Ti    9.36409000   4.48872000   3.39157000
Ti   10.47268000   2.38155000  11.35107000
Ti    4.31316000   9.95823000  12.34408000
Ti   11.12222000   7.56702000   6.08458000
Ti    6.95865000   3.61168000  11.94897000
Ti    6.84933000  11.07924000   4.19172000
Ti   11.71577000   7.98369000   1.21675000
Ti    0.81308000   1.70909000  12.35021000
Ti    2.37697000  12.05368000  10.53301000
Ti    4.03307000  12.92661000   4.32205000
Ti    6.89069000  11.06116000  10.99361000
Ti    8.82754000  12.72716000   0.52387000
Ti    4.79094000   0.86547000  11.35114000
Ti    5.53280000   8.07309000   6.04024000
Ti    8.19040000   7.13744000   7.46162000
Ti    1.29333000   5.87634000   0.43028000
Ti    3.54411000   4.19399000  11.78462000
Ti    3.72061000  10.30549000   5.64593000
Ti   12.99744000  11.32508000   0.71824000
Ti    6.38700000   6.90468000  12.73526000
Ti   12.37628000   2.72257000   8.31838000
O     3.94740000   8.74591000   2.50440000
O     5.22903000   3.52812000  12.78415000
O     7.54811000   1.99911000   8.91867000
O     7.92602000   9.77885000  12.07831000
O     1.95021000   5.61043000  11.64872000
O     3.98143000   2.40789000   2.04845000
O     2.02052000   2.59979000   5.81372000
O     4.41680000   7.76409000   9.78559000
O     9.94044000   8.17075000   2.02511000
O    12.39140000   6.33582000  10.36684000
O     2.58316000   1.84504000   0.06888000
O     5.83498000  11.27365000  12.68519000
O     7.78634000  11.34926000   5.91746000
O     9.15977000   4.61366000   1.50922000
O     5.06767000  10.20216000  10.62681000
O     4.28249000   1.67175000   4.82746000
O     6.78772000   7.06830000  10.73912000
O     5.06552000   5.01271000   7.90587000
O     6.48833000   4.39345000  10.23913000
O     3.97175000   5.37532000  10.08448000
O     2.60652000   6.70484000   1.67277000
O     9.79377000   4.54850000   8.77406000
O     6.41925000   6.25597000   5.72272000
O     6.23822000   0.15571000   7.43278000
O     9.75431000   9.56250000  10.33559000
O    10.36031000   2.24137000   7.69799000
O     3.21549000   0.88223000   7.33310000
O     7.20546000  12.98157000   1.55139000
O     4.08754000  12.91998000   2.36715000
O     0.45443000   5.04099000   1.97134000
O    12.44376000   7.54540000   2.99589000
O     1.96744000   6.52430000   9.05620000
O    10.48076000   0.88901000   4.55193000
O     8.46254000  12.29664000   3.77624000
O    10.08493000   3.65706000   4.98598000
O     1.27144000   0.64412000  10.66878000
O    12.17279000   9.09664000   5.36045000
O     9.40008000   0.78394000   2.05113000
O     2.86298000  11.40637000   8.74769000
O     9.94927000   5.66477000  11.24671000
O     8.03408000   3.55813000   6.95767000
O    13.02280000  10.08173000  12.14373000
O     1.93512000   9.99531000   6.39531000
O     5.90514000   6.68988000   1.68659000
O     3.62077000   0.42020000   9.73193000
O    13.01686000  11.32630000   4.28541000
O     7.99282000  12.50780000  11.95065000
O     3.77868000  11.00660000   0.88509000
O     5.79631000  10.94748000   8.17564000
O    12.91204000   4.81381000  12.61618000
O     6.36132000   4.10733000   4.58571000
O     1.77908000   5.08418000   6.73079000
O     3.97456000   2.52974000  10.80563000
O     5.92694000  12.76620000  10.32821000
O     8.71290000   0.21125000   7.34772000
O     0.23839000   4.03846000   4.51437000
O     1.57959000  11.81194000   2.11678000
O     3.42031000  12.72243000  12.04987000
O    12.67247000   1.64969000   6.45118000
O     1.66487000   9.05580000   8.70262000
O    12.03083000   9.01165000   9.80483000
O     2.01425000   0.14057000   4.82671000
O     8.28184000   9.75830000   4.01438000
O     5.54689000   8.70456000   0.14258000
O    12.32078000  10.22261000   7.63066000
O     3.35222000  11.04423000   3.94774000
O    12.77820000   1.42230000   3.79221000
O     0.29642000   2.73870000   0.82925000
O     3.50438000   8.29608000   5.18652000
O    11.20070000   5.02421000   3.01644000
O     0.34804000   7.51646000   0.28033000
O     4.15861000  12.05178000   6.08977000
O    10.78284000   8.96559000  12.78474000
O     1.49051000   9.74276000   0.99447000
O     8.57203000   2.79868000   3.03859000
O     7.66258000   8.65969000   1.72166000
O     0.60541000  12.21933000   6.89007000
O     9.62160000   1.31362000  12.77836000
O    11.45166000  11.89519000  12.15843000
O     5.10979000   0.75945000   0.26380000
O    10.50824000   3.66604000  12.86292000
O     1.21188000   7.95596000  10.81426000
O     5.95546000  12.72662000   4.12715000
O     4.02955000   4.17279000   5.53117000
O    11.84813000   4.07518000   6.82974000
O     1.12010000   1.80564000   8.33353000
O     9.71737000   0.99346000  10.15680000
O     9.15525000   7.26668000   9.30563000
O     5.58683000   9.95156000   5.15471000
O     2.53821000  10.43689000  11.54247000
O     6.05414000  10.59582000   2.43353000
O     9.36139000  11.04640000   0.99119000
O     8.24486000   6.02109000   3.55774000
O     1.59013000   9.00330000   3.49845000
O     6.15317000   1.97756000   2.99317000
O     8.06229000  12.01290000   9.60262000
O     5.48969000   4.37973000   2.28874000
O     9.13969000  10.67552000   7.71897000
O     3.23936000   8.22393000  12.28204000
O    10.09054000   8.61552000   7.27610000
O     7.50160000   5.24026000  12.72924000
O     9.65694000   6.01575000   6.49046000
O     2.78345000   3.89109000   3.29393000
O     7.36318000   5.47942000   8.23072000
O     7.93709000   1.25111000   5.23925000
O     7.22832000   9.50268000   9.66889000
O     7.58003000   8.59279000   6.31390000
O    11.72319000   6.70615000   8.04869000
O    12.08292000   1.34399000  11.75716000
O    11.73175000   3.49975000  10.33773000
O     4.54000000   5.97440000  12.64592000
O     5.70488000   2.65964000   6.88625000
O    12.11444000   9.82011000   1.93548000
O     6.20949000   7.63298000   8.10328000
O     6.46558000   7.86386000   3.81142000
O    12.17718000  12.65585000   2.03413000
O    11.07404000  11.62366000   9.65116000
O     1.60640000   6.20519000   4.27879000
O    11.03346000  12.60121000   6.79538000
O     3.19574000   3.34585000   8.30813000
O    10.35117000  10.98541000   5.16441000
O     7.48684000   2.66772000   0.55698000
O    11.11369000   2.68715000   2.08196000
O     1.80839000   1.11633000   2.31821000
O     0.59289000  11.49063000   9.88291000
O     0.65791000   7.45413000   7.10532000
O     3.69739000   6.78404000   7.07247000
O     6.54161000   1.78158000  11.37012000
O    11.10863000   6.19503000   0.70904000
O     0.96518000  12.92160000  13.02269000
O     2.76418000   4.41381000   0.64877000
O     8.68617000   3.27074000  10.93550000
O     4.22162000   9.24020000   7.37299000
O     8.59468000   7.49114000  12.61820000
O     1.47278000   3.13084000  10.97643000
O     4.30875000   6.17796000   3.58705000
O     9.84250000   8.03561000   4.79918000
O     0.35463000   4.47997000   8.76566000
O    12.10261000   0.84354000   9.10733000
O    12.20724000   6.18688000   5.44196000
