209
# Frame Number: 1
Ti    8.58145000   4.81680000   0.63177000
Ti   11.03690000  10.06179000  11.04147000
Ti   10.60620000   8.54430000   0.84138000
Ti    5.45448000  10.42567000   0.30575000
Ti    4.56831000   7.30352000   0.38054000
Ti    0.87846000   6.36100000  10.03696000
Ti    0.97079000   8.61954000   0.12299000
Ti   12.26474000  11.50273000   1.02203000
Ti   11.52948000   0.22597000  11.09478000
Ti    4.58265000   1.40846000   1.69918000
Ti   10.33012000   2.34976000   8.34710000
Ti    4.42390000   5.93314000   9.93456000
Ti   12.23922000  12.60021000   8.40675000
Ti    2.01235000  10.64686000   6.41253000
Ti    1.82546000   6.61946000   2.21364000
Ti    3.05203000   7.98961000   7.77912000
Ti    1.58580000  10.97293000  10.57455000
Ti    8.91937000  10.58671000   4.11233000
Ti    6.38523000  11.71220000   2.82690000
Ti    7.24451000   0.80422000   9.60618000
Ti    1.82756000   1.08957000  12.17995000
Ti    6.41462000   0.41525000   5.94188000
Ti    3.76783000   2.44971000   4.94212000
Ti    7.86419000   8.20562000  12.21074000
Ti    7.18952000   2.03156000   3.37979000
Ti    4.75014000   0.12429000  11.12694000
Ti    2.70045000   3.46913000   9.46028000
Ti    8.32020000   5.31590000   3.65515000
Ti    9.96001000   1.43587000   0.98768000
Ti    0.77668000   4.14017000   4.49774000
Ti    3.61063000  12.29857000   4.09373000
Ti    7.11783000   0.62056000  12.90490000
Ti    9.67539000   7.93160000   7.91363000
Ti    4.94415000   6.66593000   4.05043000
Ti    5.29135000   2.75226000   8.11800000
Ti    0.05850000   3.48968000   1.22283000
Ti    1.51151000   1.12492000   2.22260000
Ti    8.04763000   3.53841000   6.44223000
Ti   10.09672000   6.46883000  11.44686000
Ti    3.51049000   5.17929000   6.48362000
Ti   11.53617000  12.86915000   3.55886000
Ti    6.19578000   3.28479000  11.58205000
Ti   12.58003000   9.05769000   8.52536000
Ti    0.80084000   0.81908000   5.53287000
Ti   10.43472000   3.06429000   3.39285000
Ti    8.22038000  11.13949000   7.26395000
Ti    2.21375000   0.58854000   8.62628000
Ti   11.72670000  10.57026000   6.00372000
Ti    3.52181000   8.69236000  10.80305000
Ti    2.60044000  11.55711000   0.78174000
Ti    1.14043000  10.38063000   3.42135000
Ti   12.65622000   5.90864000  12.82757000
Ti    6.52291000   8.19920000   8.86668000
Ti   10.19925000   8.04125000   4.56773000
Ti    5.43257000   4.18072000   1.88970000
Ti    5.56392000   9.91006000   5.77119000
Ti    7.84755000   5.23356000   9.03770000
Ti    9.32543000   2.95866000  11.27286000
Ti   11.21440000   5.25687000   8.86631000
Ti    0.30022000   7.22744000   6.31108000
Ti    7.11692000   7.06900000   6.03611000
Ti    8.65313000  10.97090000   0.54279000
Ti    3.04831000   4.31034000  12.68309000
Ti    4.63191000  11.15665000   8.40868000
Ti   12.83349000   2.98636000  10.55477000
Ti    7.18527000   8.02963000   2.25590000
Ti   10.00197000   0.40876000   5.89677000
Ti    7.67507000  10.65179000  10.30276000
Ti   10.92691000   4.92877000   5.83190000
Ti    0.49585000   3.57299000   7.40465000
Ti    3.56964000   8.89453000   3.07708000
Ti   11.80981000   6.25502000   3.05161000
O     9.98885000   6.15997000   4.22278000
O    12.85216000   7.09350000   8.50479000
O     4.31399000  11.70919000  12.35030000
O     9.94243000   4.59975000  12.15539000
O    12.16804000   9.10451000  12.58969000
O     3.12777000   6.90724000   3.54377000
O     1.70948000  12.03321000  12.09598000
O     1.34011000   8.90208000   7.39879000
O     8.88866000   2.85418000   0.30747000
O     6.75933000  12.56925000  11.19914000
O     2.94121000  12.05870000   7.76775000
O     3.03198000   0.53593000   0.74143000
O    12.82879000   4.04316000  12.26203000
O     0.28481000   0.75547000   3.63221000
O     8.33425000   9.56281000   8.26907000
O     7.19479000   3.92844000   2.92364000
O     2.75963000   7.85917000   0.95495000
O     4.48289000   4.15863000   9.08824000
O     2.28870000   4.26664000   7.71100000
O    10.96534000   0.69508000   7.48856000
O     6.45559000   7.62356000   0.32425000
O     0.83796000  12.46539000   9.62643000
O     4.82192000   4.94256000   3.38069000
O    12.41628000  11.22638000   2.98834000
O     0.20583000   2.65590000   5.61031000
O    10.45241000   1.46286000  11.98807000
O     4.72981000  12.63596000   2.44352000
O    10.84757000   9.00769000   9.41604000
O     2.18395000  12.01495000   2.66537000
O     3.80325000  10.24630000   1.44977000
O     0.14444000   4.64154000   9.28209000
O     8.19980000  12.87542000   6.30112000
O     5.15487000  12.66628000   9.33911000
O     6.52952000  11.99758000   0.81972000
O    12.82145000  10.91628000   7.64080000
O     6.27399000   9.85509000   2.05547000
O     9.82616000  12.32028000   4.25531000
O     4.71761000   4.36487000  11.46632000
O     3.57716000   1.90799000   8.45346000
O     0.06247000   1.24984000  11.64813000
O     2.15356000   7.78033000   9.57213000
O     5.15611000   7.64340000   2.26142000
O     9.17594000   4.20839000   8.02590000
O     8.55731000   8.79800000   3.50343000
O     9.34174000   3.76234000   4.80327000
O     1.49052000   8.63378000   3.06941000
O     6.50707000   1.29001000   7.72714000
O    12.07503000  12.47500000   5.51042000
O     6.76584000   4.04180000   7.87290000
O     6.99562000   2.29030000   5.33711000
O    11.48761000   3.64326000   7.43317000
O     4.62248000   0.61826000   5.30577000
O    10.58314000  10.44898000   1.08957000
O     8.91316000   1.75564000   9.49659000
O     2.45128000   5.21349000  10.34719000
O    11.46824000   2.47140000   1.72351000
O     5.95541000  11.60698000   6.97433000
O     0.11352000   5.18696000   6.09613000
O     6.98204000   0.18719000   3.99092000
O     5.95140000  10.10855000   9.28070000
O    11.79530000   1.34468000   9.52064000
O     5.24214000  11.22681000   4.29272000
O     1.62823000   5.13702000   0.88259000
O     7.61986000   8.51550000  10.39744000
O     6.27960000   6.24717000   9.75947000
O     2.29544000   2.86207000  11.33626000
O     9.27993000   2.09478000   6.70415000
O     9.41140000  10.90916000  11.48998000
O     4.58493000   8.06914000   9.32217000
O     8.05218000   6.27784000   1.90275000
O     6.57398000   1.51732000   1.56409000
O    11.95022000  11.66754000  12.11221000
O     6.72573000   4.18622000   0.29479000
O     2.08357000   9.50897000  11.83846000
O     5.20593000   2.45264000   3.27476000
O     9.02712000   1.79961000   2.68699000
O     3.91526000   6.89613000  11.54919000
O     0.43230000  10.09272000   5.20399000
O     7.73678000   5.23522000   5.61412000
O     5.76780000   2.08706000  10.00843000
O     2.91097000  10.34018000   4.41273000
O    11.92767000   6.16587000  10.84586000
O     3.82670000   9.71905000   7.08899000
O     0.18662000   7.30711000   1.32553000
O     9.88093000   8.42030000  11.78593000
O     2.98695000   0.54042000  10.59156000
O    12.05069000   7.44322000   4.81580000
O     9.62220000   4.48349000   2.27348000
O     4.88952000   8.57144000   4.59125000
O     4.38376000   5.52497000   0.83375000
O     8.27953000  11.32726000   2.53131000
O     6.94736000   6.87129000   3.94980000
O    10.88909000   1.55005000   4.52238000
O     8.01232000  12.12639000   8.95400000
O     1.47694000   2.34197000   0.64366000
O     1.16477000   2.32225000   9.05982000
O    11.13209000  11.82240000   9.75992000
O     4.71843000   9.07075000  12.19383000
O     5.07412000   6.08924000   5.84319000
O     7.84025000   6.87458000   7.97026000
O     7.13900000  10.10767000  12.27903000
O    11.77179000   4.28494000   4.04321000
O     2.44152000   1.76727000   5.94141000
O     8.63784000   8.81204000   0.95664000
O     0.98633000  10.34692000   1.14145000
O     3.07427000   1.33863000   3.31528000
O    11.47441000   8.84908000   6.93880000
O     9.52963000   6.28848000   9.63540000
O     5.26861000   1.46804000  12.47069000
O     4.61456000   3.39871000   6.38885000
O    10.86677000   7.98070000   2.57651000
O    10.06629000  11.32226000   6.80821000
O     0.99580000   7.02683000  11.87356000
O     0.75683000   5.81000000   3.51492000
O    11.04740000  12.92749000   1.71546000
O    10.77871000   3.51337000  10.02467000
O     6.10368000   8.43192000   7.03408000
O    12.10105000   5.02573000   1.50746000
O     7.72362000   4.10703000  10.63706000
O     8.98100000   8.01627000   5.98608000
O    10.67211000   9.90825000   4.54366000
O     0.97046000   3.07315000   2.87595000
O     2.01495000  12.36042000   5.24728000
O     0.07394000   9.89589000  10.18634000
O     0.53786000  12.97913000   1.00446000
O     2.67351000   4.20719000   4.91907000
O     8.82943000   0.01215000   0.38124000
O     3.88475000   6.25253000   8.08407000
O     7.67694000   1.80755000  11.50467000
O     7.61788000  10.43383000   5.45152000
O     2.33319000   6.84464000   6.34188000
O     3.23496000  10.41976000   9.79160000
O    10.93769000   6.69875000   0.22533000
O     0.66896000   0.53054000   7.40659000
O     4.02296000   3.12279000   1.07299000
O     8.33651000   6.35409000  12.25723000
O    10.65634000   6.26852000   7.19159000
